   ******************************************************************************
   ** mxspr013.dat:   Rel Perm Set Interpolation on Seawater Fraction          **
   ******************************************************************************
   **************************************************************************************
   **                                                                                  **
   ** FILE:   MXSPR006.DAT                                                             **
   **                                                                                  **
   ** MODEL:  7x7x3             SEAWATER INJECTION/SCALE BUILDUP                       **
   **                                                                                  **
   **************************************************************************************
   **                                                                                  **
   ** It demonstrates relative permeability table set interpolation based on block     **
   ** seawater fraction.                                                               **
   **                                                                                  **
   **************************************************************************************
   ** CONTACT:    CMG,   (403)531-1300;   282-6495 (fax);support@cmgl.ca    (Internet) **
   **************************************************************************************

   RESULTS SIMULATOR IMEX

   ********************************************************************************
   ** I/O Control Section
   ********************************************************************************

   *TITLE1
   'Seawater Test Problem'
   *TITLE2
   'Rel Perm Set Interpolation on Seawater Fraction'

   *INUNIT *FIELD
   *WPRN   *WELL 1

   *OUTPRN *WELL    *ALL
   *OUTPRN *TABLES  *ALL
   *OUTPRN *GRID    *EXCEPT  *OILPOT  *DATUMPRES

   *WSRF   *GRID    10
   *OUTSRF *GRID    *EXCEPT  *OILPOT  *DATUMPRES
   *WSRF   *WELL    1
   *OUTSRF *WELL  *LAYER  *ALL

   *OUTSRF *SPECIAL 1 1 1 *KRW
   *OUTSRF *SPECIAL 1 1 1 *SW
   *OUTSRF *SPECIAL 1 1 1 *SEAWF
   *OUTSRF *SPECIAL 7 7 3 *KRW
   *OUTSRF *SPECIAL 7 7 3 *SW
   *OUTSRF *SPECIAL 7 7 3 *SEAWF

   *WRST *TIME

   ********************************************************************************
   ** Reservoir Description Section
   ********************************************************************************
   *GRID *CART 7 7 3               ** A regular cartesian grid is used.
                                   ** There are 7 grid blocks in the I (x)
                                   ** direction, 7 in the J (y) direction,
                                   ** and 3 in the K (z) direction.
   *DI *CON                        ** I and J direction dimensions are constant
   315.0                           ** and the same, while the K direction
   *DJ *CON                        ** dimensions vary from layer to layer.
   315.0                           ** Notice that the first number is the
   *DK *KVAR                       ** thickness of the lowest layer.
     50.0  30.0  20.0

   *DEPTH 1 1 1 2000.              ** Reference depth measured from bottommost
                                   ** block on lefthand side
   *POR *CON
    0.300

   *PRPOR    14.7
   *CPOR     3.0E-6

   *PERMI *KVAR
      200.0   50.0  500.0
   *PERMJ *KVAR
      200.0   50.0  500.0
   *PERMK *KVAR
       19.2  200.0  200.0


   ********************************************************************************
   ** Component Property Section
   ********************************************************************************
   *MODEL *BLACKOIL_SEAWATER  ** Models flow of seawater, oil, water and gas.
   *PVT
   **  p        rs      bo       eg     viso     visg
       14.7     1.0   1.062     6.0     1.04     0.0080
      264.7    90.5   1.15     82.692   0.975    0.0096
      514.7   180.0   1.207   159.388   0.91     0.0112
     1014.7   371.0   1.295   312.793   0.83     0.0140
     2014.7   636.0   1.435   619.579   0.69     0.0189
     2514.7   775.0   1.5     772.798   0.64     0.0208
     3014.7   930.0   1.565   925.926   0.594    0.0228
     4014.7  1270.0   1.695  1233.046   0.51     0.0268
     5014.7  1600.0   1.827  1540.832   0.449    0.0309
     9014.7  2984.0   2.36   2590.674   0.203    0.0470

   *DENSITY *OIL    46.244
   *DENSITY *GAS     0.0647
   *DENSITY *WATER  62.238

   *CO     1.3687E-5
   *CVO    4.6E-5
   *BWI    1.04
   *CW     3.04E-6
   *REFPW  14.7
   *VWI    0.31
   *CVW    0.0


   SVISC     1.1                 ** Seawater viscosity.

   ********************************************************************************
   ** Rock-fluid Property component
   ********************************************************************************
   *ROCKFLUID

   *RPT 1
      *INTCOMP *SEAWATFRC
      *KRINTRP 1
      *INTCOMP_VAL 0.0
      
      *SWT *SMOOTHEND *OFF  
      **  sw       krw    krow    pcog      
         0.2       0.0    1.0      7.0
         0.3       0.07   0.4      4.0
         0.4       0.15   0.125    3.0
         0.5       0.24   0.0649   2.5
         0.6       0.33   0.0048   2.0
         0.8       0.65   0.0      1.0
         0.9       0.83   0.0      0.5
         1.0       1.0    0.0      0.0

      *SLT *SMOOTHEND *OFF
      **   sl     krg     krog       pcog
           0.2    0.98    0.0         0.0
           0.3    0.94    0.0         0.0
           0.4    0.87    1.0000E-4   0.0
           0.5    0.72    0.001       0.0
           0.55   0.6     0.010       0.0
           0.6    0.41    0.021       0.0
           0.7    0.19    0.09        0.0
           0.75   0.125   0.2         0.0
           0.8    0.075   0.35        0.0
           0.88   0.025   0.7         0.0
           0.95   0.005   0.98        0.0
           0.98   0.0     0.997       0.0
           0.999  0.0     1.0         0.0
           1.0    0.0     1.0         0.0


   *KRINTRP 2 *COPY 1 1
   *INTCOMP_VAL 0.50
   
   *TSWCRIT 0.25
   *TSORW   0.10
   *TSORG   0.15
   *TSGCRIT 0.03

   *KRINTRP 3 *COPY 1 2
   *INTCOMP_VAL 1.0
   
   *TSWCRIT 0.30
   *TSORW   0.05
   *TSORG   0.20
   *TSGCRIT 0.05

   *RPT 2
   *INTCOMP *SEAWATFRC

   *KRINTRP 1 *COPY 1 1
   *KRINTRP 2 *COPY 1 2
   *KRINTRP 3 *COPY 2 1
   *INTCOMP_VAL 1.0
   
   *TSWCRIT 0.30
   *TSORW   0.05
   *TSORG   0.20
   *TSGCRIT 0.05

   *RTYPE KVAR
   1 2 1

   *SCLDPS
** seawater    scale
** frac.       precipitation
**             (lbm/stb)
   0.00      0.00000E+00
   0.10      0.8E-05
   0.20      1.6E-05
   0.30      2.2E-05
   0.40      2.4E-05
   0.50      1.8E-05
   0.60      1.5E-05
   0.70      0.8E-05
   0.80      0.6E-05
   0.90      0.3E-05
   1.00      0.00000E+00

   *SCLDPS
** seawater    scale
** frac.       precipitation
**             (lbm/stb)
   0.00      0.00000E+00
   0.10      0.4E-05
   0.20      0.8E-05
   0.30      1.1E-05
   0.40      1.2E-05
   0.50      0.9E-05
   0.60      0.7E-05
   0.70      0.4E-05
   0.80      0.3E-05
   0.90      0.1E-05
   1.00      0.00000E+00

   *SCLDMG
** scale       WI
** deposit     multi
**(lbm/ft)
   0.0         1.00
   0.00672     0.95
   0.01344     0.85
   0.02688     0.55
   0.06048     0.43
   0.10079     0.35
   0.13439     0.32
   0.26879     0.28
   0.53758     0.25
   1.0         0.24
   2.0         0.23
   5.0         0.23


   ********************************************************************************
   ** Initial Conditions Section
   ********************************************************************************
   *INITIAL
   *USER_INPUT

   *PRES *CON 3000.0
   *PB   *CON 2500.0
   *SO   *CON     0.8
   *SW   *CON     0.2


   ********************************************************************************
   ** Numerical Methods Control Section
   ********************************************************************************
   *NUMERICAL
   *DTMAX  62.
   *CONVERGE *MAXRES *SEAWATER  0.0001

   ********************************************************************************
   ** Well Data Section
   ********************************************************************************
   *RUN

   *DATE  1987  11  02  
   *AIMSET   *CON  1
   *DTWELL      1.0      
   *WELL 1    'SEAWATER INJECTOR'
   *WELL 2    'PRODUCER'

   *INJECTOR  1

   *INCOMP    *WATER  0.0 1.0      ** Seawater
                                   ** to be injected
   *OPERATE   *MAX       *STW    5000.0
   *OPERATE   *MAX       *BHP    9000.0 *CONT *REPEAT 


   **            rad    geofac  wfrac   skin
   *GEOMETRY  *K  0.25   0.34    1.0     0.0

   *PERF *GEO 1
   ** if      jf     kf     ff
       1      1      1     1.0

   *PRODUCER  2
   *OPERATE   *MAX       *STO    2500
   *OPERATE   *MIN       *BHP    1500.0
   *PERF *GEO  2
   ** if      jf     kf     ff
       7      7      3      1.0


   *SCLTBL-WELL 2
    1  1


   *TIME      1.0

   *DATE 1988 01 01
   *DATE 1989 01 01
   *DATE 1990 01 01
   *DATE 1991 01 01

   *INCOMPWL 1
     0.0 0.90

   *DATE 1992 01 01
   *DATE 1993 01 01
   *DATE 1994 01 01
   *DATE 1995 01 01

   *SCLRMV-WELL 2
    0.75

   *SCLTBL-WELL 2
    2  1

   *DATE 1996 01 01
   *DATE 1997 01 01
   *DATE 1998 01 01

   *STOP
